Project files/dadossis9barras.m
% ********************************************************************** %
%                    UNIVERSIDADE TECNOLÓGICA FEDERAL DO PARANÁ
%                         CURSO DE ENGENHARIA ELÉTRICA
%             DISCIPLINA: ANÁLISE DE SISTEMAS ELÉTRICOS DE POTÊNCIA 1
% ********************************************************************** %

clc;
basemva=100;

% ********************************************************************** %
%                             Dados do Sistema
% ********************************************************************** %

%%% Dados de barra do sistema (PQ = 0,swing = 2, PV = 1)
%%%
%        Barra Barra  Tensão  Ângulo   ---Carga----    -------Geração-------   Inj.CAP
%        No    Tipo    Mag.    Graus    MW    Mvar      MW  Mvar    Qmin  Qmax    Mvar
%Qmin deve ser negativo
busdata=[1       2     1.040   0.0     0.0    0.0     71.63  27.04     0    0       0   
         2       1     1.025   0.0     0.0    0.0     163.0  6.652     0    0       0   
         3       1     1.025   0.0     0.0    10.9     85.0   0.0      0    0       0    
         4       0     1.0     0.0     0.0    0.0       0.0   0.0      0    0       0    
         5       0     1.0     0.0     125    50.0      0.0   0.0      0    0       0
         6       0     1.0     0.0     90     30.0      0.0   0.0      0    0       0
         7       0     1.0     0.0     0.0    0.0       0.0   0.0      0    0       0
         8       0     1.0     0.0     100    35.0      0.0   0.0      0    0       0
         9       0     1.0     0.0     0.0    0.0       0.0   0.0      0    0       0
         ];
        

% ********************************************************************** %
%                             Dados de linha
% ********************************************************************** %
%         Barra  Barra    R         X       1/2 B   
%         De     Para    p.u.      p.u.     p.u.     tap   tmin tmax
linedata=[ 1      4      0.0       0.0576   0.0       1     1.0  1.0
           2      7      0.0       0.0625   0.0       1     1.0  1.0
           3      9      0.0       0.0586   0.0       1     1.0  1.0
           4      5      0.0100    0.0850   0.088     1     1.0  1.0
           4      6      0.0170    0.0920   0.079     1     1.0  1.0
           5      7      0.0320    0.1610   0.153     1     1.0  1.0  
           6      9      0.0390    0.1700   0.179     1     1.0  1.0
           7      8      0.0085    0.0720   0.0745    1     1.0  1.0
           8      9      0.0119    0.1008   0.1045    1     1.0  1.0
          ];
          
% ********************************************************************** %
%                             Fim da Leitura de Dados
% ********************************************************************** %

